edisgo/opf/edisgo_scenario_data/1056/topology/loads.csv
,bus,p_set,type,annual_consumption,sector,voltage_level,p,geom
Load_mvgd_1056_lvgd_97101_1,BranchTee_mvgd_1056_lvgd_97101_2,0.0012762918671286,conventional_load,5.971794250087166,residential,lv,,
Load_mvgd_1056_lvgd_97101_2,BranchTee_mvgd_1056_lvgd_97101_4,0.0012762918671286,conventional_load,5.971794250087166,residential,lv,,
Load_mvgd_1056_lvgd_97101_3,BranchTee_mvgd_1056_lvgd_97101_6,0.0012762918671286,conventional_load,5.971794250087166,residential,lv,,
Load_mvgd_1056_lvgd_97101_4,BranchTee_mvgd_1056_lvgd_97101_8,0.0012762918671286,conventional_load,5.971794250087166,residential,lv,,
Load_mvgd_1056_lvgd_97101_5,BranchTee_mvgd_1056_lvgd_97101_10,0.0012762918671286,conventional_load,5.971794250087166,residential,lv,,
Load_mvgd_1056_lvgd_97101_6,BranchTee_mvgd_1056_lvgd_97101_12,0.0012762918671286,conventional_load,5.971794250087166,residential,lv,,
Load_mvgd_1056_lvgd_97101_7,BranchTee_mvgd_1056_lvgd_97101_14,0.0012762918671286,conventional_load,5.971794250087166,residential,lv,,
Load_mvgd_1056_lvgd_97101_8,BranchTee_mvgd_1056_lvgd_97101_16,0.0012762918671286,conventional_load,5.971794250087166,residential,lv,,
Load_mvgd_1056_lvgd_97101_9,BranchTee_mvgd_1056_lvgd_97101_18,0.0012762918671286,conventional_load,5.971794250087166,residential,lv,,
Load_mvgd_1056_lvgd_97101_10,BranchTee_mvgd_1056_lvgd_97101_20,0.0012762918671286,conventional_load,5.971794250087166,residential,lv,,
Load_mvgd_1056_lvgd_97101_11,BranchTee_mvgd_1056_lvgd_97101_22,0.0012762918671286,conventional_load,5.971794250087166,residential,lv,,
Load_mvgd_1056_lvgd_97101_12,BranchTee_mvgd_1056_lvgd_97101_24,0.0012762918671286,conventional_load,5.971794250087166,residential,lv,,
Load_mvgd_1056_lvgd_97101_13,BranchTee_mvgd_1056_lvgd_97101_26,0.0012762918671286,conventional_load,5.971794250087166,residential,lv,,
Load_mvgd_1056_lvgd_97101_14,BranchTee_mvgd_1056_lvgd_97101_28,0.0012762918671286,conventional_load,5.971794250087166,residential,lv,,
Load_mvgd_1056_lvgd_97101_15,BranchTee_mvgd_1056_lvgd_97101_30,0.0012762918671286,conventional_load,5.971794250087166,residential,lv,,
Load_mvgd_1056_lvgd_97101_16,BranchTee_mvgd_1056_lvgd_97101_32,0.0012762918671286,conventional_load,5.971794250087166,residential,lv,,
Load_mvgd_1056_lvgd_97101_17,BranchTee_mvgd_1056_lvgd_97101_34,0.0012762918671286,conventional_load,5.971794250087166,residential,lv,,
Load_mvgd_1056_lvgd_97101_18,BranchTee_mvgd_1056_lvgd_97101_36,0.0012762918671286,conventional_load,5.971794250087166,residential,lv,,
Load_mvgd_1056_lvgd_97101_19,BranchTee_mvgd_1056_lvgd_97101_38,0.0012762918671286,conventional_load,5.971794250087166,residential,lv,,
Load_mvgd_1056_lvgd_97101_20,BranchTee_mvgd_1056_lvgd_97101_40,0.0012762918671286,conventional_load,5.971794250087166,residential,lv,,
Load_mvgd_1056_lvgd_97101_21,BranchTee_mvgd_1056_lvgd_97101_42,0.0012762918671286,conventional_load,5.971794250087166,residential,lv,,
Load_mvgd_1056_lvgd_97101_22,BranchTee_mvgd_1056_lvgd_97101_44,0.0012762918671286,conventional_load,5.971794250087166,residential,lv,,
Load_mvgd_1056_lvgd_97101_23,BranchTee_mvgd_1056_lvgd_97101_46,0.0012762918671286,conventional_load,5.971794250087166,residential,lv,,
Load_mvgd_1056_lvgd_97101_24,BranchTee_mvgd_1056_lvgd_97101_48,0.0012762918671286,conventional_load,5.971794250087166,residential,lv,,
Load_mvgd_1056_lvgd_440123_1,BranchTee_mvgd_1056_lvgd_440123_2,0.0012301608357866,conventional_load,5.7559462651442335,residential,lv,,
Load_mvgd_1056_lvgd_440123_2,BranchTee_mvgd_1056_lvgd_440123_4,0.0012301608357866,conventional_load,5.7559462651442335,residential,lv,,
Load_mvgd_1056_lvgd_440123_3,BranchTee_mvgd_1056_lvgd_440123_6,0.0012301608357866,conventional_load,5.7559462651442335,residential,lv,,
Load_mvgd_1056_lvgd_97195_1,BranchTee_mvgd_1056_lvgd_97195_2,0.0012490863871064,conventional_load,5.844499284607999,residential,lv,,
Load_mvgd_1056_lvgd_97195_2,BranchTee_mvgd_1056_lvgd_97195_4,0.0012490863871064,conventional_load,5.844499284607999,residential,lv,,
Load_mvgd_1056_lvgd_97195_3,BranchTee_mvgd_1056_lvgd_97195_6,0.0012490863871064,conventional_load,5.844499284607999,residential,lv,,
Load_mvgd_1056_lvgd_97195_4,BranchTee_mvgd_1056_lvgd_97195_8,0.0012490863871064,conventional_load,5.844499284607999,residential,lv,,
Load_mvgd_1056_lvgd_97195_5,BranchTee_mvgd_1056_lvgd_97195_10,0.0012490863871064,conventional_load,5.844499284607999,residential,lv,,
Load_mvgd_1056_lvgd_97195_6,BranchTee_mvgd_1056_lvgd_97195_12,0.0012490863871064,conventional_load,5.844499284607999,residential,lv,,
Load_mvgd_1056_lvgd_97195_7,BranchTee_mvgd_1056_lvgd_97195_14,0.0012490863871064,conventional_load,5.844499284607999,residential,lv,,
Load_mvgd_1056_lvgd_97195_8,BranchTee_mvgd_1056_lvgd_97195_16,0.0012490863871064,conventional_load,5.844499284607999,residential,lv,,
Load_mvgd_1056_lvgd_97195_9,BranchTee_mvgd_1056_lvgd_97195_18,0.0012490863871064,conventional_load,5.844499284607999,residential,lv,,
Load_mvgd_1056_lvgd_97195_10,BranchTee_mvgd_1056_lvgd_97195_20,0.0012490863871064,conventional_load,5.844499284607999,residential,lv,,
Load_mvgd_1056_lvgd_97195_11,BranchTee_mvgd_1056_lvgd_97195_22,0.0012490863871064,conventional_load,5.844499284607999,residential,lv,,
Load_mvgd_1056_lvgd_97195_12,BranchTee_mvgd_1056_lvgd_97195_24,0.0012490863871064,conventional_load,5.844499284607999,residential,lv,,
Load_mvgd_1056_lvgd_97195_13,BranchTee_mvgd_1056_lvgd_97195_26,0.0012490863871064,conventional_load,5.844499284607999,residential,lv,,
Load_mvgd_1056_lvgd_97221_1,BranchTee_mvgd_1056_lvgd_97221_2,0.0012916688775759,conventional_load,6.043743578401456,residential,lv,,
Load_mvgd_1056_lvgd_97221_2,BranchTee_mvgd_1056_lvgd_97221_4,0.0012916688775759,conventional_load,6.043743578401456,residential,lv,,
Load_mvgd_1056_lvgd_97221_3,BranchTee_mvgd_1056_lvgd_97221_6,0.0012916688775759,conventional_load,6.043743578401456,residential,lv,,
Load_mvgd_1056_lvgd_97221_4,BranchTee_mvgd_1056_lvgd_97221_8,0.0012916688775759,conventional_load,6.043743578401456,residential,lv,,
Load_mvgd_1056_lvgd_97221_5,BranchTee_mvgd_1056_lvgd_97221_10,0.0012916688775759,conventional_load,6.043743578401456,residential,lv,,
Load_mvgd_1056_lvgd_97221_6,BranchTee_mvgd_1056_lvgd_97221_12,0.0012916688775759,conventional_load,6.043743578401456,residential,lv,,
Load_mvgd_1056_lvgd_97221_7,BranchTee_mvgd_1056_lvgd_97221_14,0.0012916688775759,conventional_load,6.043743578401456,residential,lv,,
Load_mvgd_1056_lvgd_97221_8,BranchTee_mvgd_1056_lvgd_97221_16,0.0012916688775759,conventional_load,6.043743578401456,residential,lv,,
Load_mvgd_1056_lvgd_97221_9,BranchTee_mvgd_1056_lvgd_97221_18,0.0012916688775759,conventional_load,6.043743578401456,residential,lv,,
Load_mvgd_1056_lvgd_97221_10,BranchTee_mvgd_1056_lvgd_97221_20,0.0012916688775759,conventional_load,6.043743578401456,residential,lv,,
Load_mvgd_1056_lvgd_97221_11,BranchTee_mvgd_1056_lvgd_97221_22,0.0012916688775759,conventional_load,6.043743578401456,residential,lv,,
Load_mvgd_1056_lvgd_97221_12,BranchTee_mvgd_1056_lvgd_97221_24,0.0012916688775759,conventional_load,6.043743578401456,residential,lv,,
Load_mvgd_1056_lvgd_97221_13,BranchTee_mvgd_1056_lvgd_97221_26,0.0012916688775759,conventional_load,6.043743578401456,residential,lv,,
Load_mvgd_1056_lvgd_97221_14,BranchTee_mvgd_1056_lvgd_97221_28,0.0012916688775759,conventional_load,6.043743578401456,residential,lv,,
Load_mvgd_1056_lvgd_97221_15,BranchTee_mvgd_1056_lvgd_97221_30,0.0012916688775759,conventional_load,6.043743578401456,residential,lv,,
Load_mvgd_1056_lvgd_97221_16,BranchTee_mvgd_1056_lvgd_97221_32,0.0012916688775759,conventional_load,6.043743578401456,residential,lv,,
Load_mvgd_1056_lvgd_97239_1,BranchTee_mvgd_1056_lvgd_97239_2,0.0012695259825318,conventional_load,5.940136545628841,residential,lv,,
Load_mvgd_1056_lvgd_97239_2,BranchTee_mvgd_1056_lvgd_97239_4,0.0012695259825318,conventional_load,5.940136545628841,residential,lv,,
Load_mvgd_1056_lvgd_97239_3,BranchTee_mvgd_1056_lvgd_97239_6,0.0012695259825318,conventional_load,5.940136545628841,residential,lv,,
Load_mvgd_1056_lvgd_97239_4,BranchTee_mvgd_1056_lvgd_97239_8,0.0012695259825318,conventional_load,5.940136545628841,residential,lv,,
Load_mvgd_1056_lvgd_97239_5,BranchTee_mvgd_1056_lvgd_97239_10,0.0012695259825318,conventional_load,5.940136545628841,residential,lv,,
Load_mvgd_1056_lvgd_97239_6,BranchTee_mvgd_1056_lvgd_97239_12,0.0012695259825318,conventional_load,5.940136545628841,residential,lv,,
Load_mvgd_1056_lvgd_97239_7,BranchTee_mvgd_1056_lvgd_97239_14,0.0012695259825318,conventional_load,5.940136545628841,residential,lv,,
Load_mvgd_1056_lvgd_97239_8,BranchTee_mvgd_1056_lvgd_97239_16,0.0012695259825318,conventional_load,5.940136545628841,residential,lv,,
Load_mvgd_1056_lvgd_97239_9,BranchTee_mvgd_1056_lvgd_97239_18,0.0012695259825318,conventional_load,5.940136545628841,residential,lv,,
Load_mvgd_1056_lvgd_97239_10,BranchTee_mvgd_1056_lvgd_97239_20,0.0012695259825318,conventional_load,5.940136545628841,residential,lv,,
Load_mvgd_1056_lvgd_97239_11,BranchTee_mvgd_1056_lvgd_97239_22,0.0012695259825318,conventional_load,5.940136545628841,residential,lv,,
Load_mvgd_1056_lvgd_97239_12,BranchTee_mvgd_1056_lvgd_97239_24,0.0012695259825318,conventional_load,5.940136545628841,residential,lv,,
Load_mvgd_1056_lvgd_97239_13,BranchTee_mvgd_1056_lvgd_97239_26,0.0012695259825318,conventional_load,5.940136545628841,residential,lv,,
Load_mvgd_1056_lvgd_97239_14,BranchTee_mvgd_1056_lvgd_97239_28,0.0012695259825318,conventional_load,5.940136545628841,residential,lv,,
Load_mvgd_1056_lvgd_97239_15,BranchTee_mvgd_1056_lvgd_97239_30,0.0012695259825318,conventional_load,5.940136545628841,residential,lv,,
Load_mvgd_1056_lvgd_97239_16,BranchTee_mvgd_1056_lvgd_97239_32,0.0012695259825318,conventional_load,5.940136545628841,residential,lv,,
Load_mvgd_1056_lvgd_97239_17,BranchTee_mvgd_1056_lvgd_97239_34,0.0012695259825318,conventional_load,5.940136545628841,residential,lv,,
Load_mvgd_1056_lvgd_97239_18,BranchTee_mvgd_1056_lvgd_97239_36,0.0012695259825318,conventional_load,5.940136545628841,residential,lv,,
Load_mvgd_1056_lvgd_97239_19,BranchTee_mvgd_1056_lvgd_97239_38,0.0012695259825318,conventional_load,5.940136545628841,residential,lv,,
Load_mvgd_1056_lvgd_97239_20,BranchTee_mvgd_1056_lvgd_97239_40,0.0012695259825318,conventional_load,5.940136545628841,residential,lv,,
Load_mvgd_1056_lvgd_97239_21,BranchTee_mvgd_1056_lvgd_97239_42,0.0012695259825318,conventional_load,5.940136545628841,residential,lv,,
Load_mvgd_1056_lvgd_97239_22,BranchTee_mvgd_1056_lvgd_97239_44,0.0012695259825318,conventional_load,5.940136545628841,residential,lv,,
Load_mvgd_1056_lvgd_97239_23,BranchTee_mvgd_1056_lvgd_97239_46,0.0012695259825318,conventional_load,5.940136545628841,residential,lv,,
Load_mvgd_1056_lvgd_97239_24,BranchTee_mvgd_1056_lvgd_97239_48,0.0012695259825318,conventional_load,5.940136545628841,residential,lv,,
Load_mvgd_1056_lvgd_97239_25,BranchTee_mvgd_1056_lvgd_97239_50,0.0012695259825318,conventional_load,5.940136545628841,residential,lv,,
Load_mvgd_1056_lvgd_97253_1,BranchTee_mvgd_1056_lvgd_97253_2,0.0013707506455908,conventional_load,6.413768695446444,residential,lv,,
Load_mvgd_1056_lvgd_97253_2,BranchTee_mvgd_1056_lvgd_97253_4,0.0013707506455908,conventional_load,6.413768695446444,residential,lv,,
Load_mvgd_1056_lvgd_97253_3,BranchTee_mvgd_1056_lvgd_97253_6,0.0013707506455908,conventional_load,6.413768695446444,residential,lv,,
Load_mvgd_1056_lvgd_97253_4,BranchTee_mvgd_1056_lvgd_97253_8,0.0013707506455908,conventional_load,6.413768695446444,residential,lv,,
Load_mvgd_1056_lvgd_97253_5,BranchTee_mvgd_1056_lvgd_97253_10,0.0013707506455908,conventional_load,6.413768695446444,residential,lv,,
Load_mvgd_1056_lvgd_97253_6,BranchTee_mvgd_1056_lvgd_97253_12,0.0013707506455908,conventional_load,6.413768695446444,residential,lv,,
Load_mvgd_1056_lvgd_97253_7,BranchTee_mvgd_1056_lvgd_97253_14,0.0013707506455908,conventional_load,6.413768695446444,residential,lv,,
Load_mvgd_1056_lvgd_97254_1,BranchTee_mvgd_1056_lvgd_97254_2,0.0012471285714526,conventional_load,5.835338627422103,residential,lv,,
Load_mvgd_1056_lvgd_97254_2,BranchTee_mvgd_1056_lvgd_97254_4,0.0012471285714526,conventional_load,5.835338627422103,residential,lv,,
Load_mvgd_1056_lvgd_97254_3,BranchTee_mvgd_1056_lvgd_97254_6,0.0012471285714526,conventional_load,5.835338627422103,residential,lv,,
Load_mvgd_1056_lvgd_97254_4,BranchTee_mvgd_1056_lvgd_97254_8,0.0012471285714526,conventional_load,5.835338627422103,residential,lv,,
Load_mvgd_1056_lvgd_97254_5,BranchTee_mvgd_1056_lvgd_97254_10,0.0012471285714526,conventional_load,5.835338627422103,residential,lv,,
Load_mvgd_1056_lvgd_97254_6,BranchTee_mvgd_1056_lvgd_97254_12,0.0012471285714526,conventional_load,5.835338627422103,residential,lv,,
Load_mvgd_1056_lvgd_97254_7,BranchTee_mvgd_1056_lvgd_97254_14,0.0012471285714526,conventional_load,5.835338627422103,residential,lv,,
Load_mvgd_1056_lvgd_97254_8,BranchTee_mvgd_1056_lvgd_97254_16,0.0012471285714526,conventional_load,5.835338627422103,residential,lv,,
Load_mvgd_1056_lvgd_97254_9,BranchTee_mvgd_1056_lvgd_97254_18,0.0012471285714526,conventional_load,5.835338627422103,residential,lv,,
Load_mvgd_1056_lvgd_97254_10,BranchTee_mvgd_1056_lvgd_97254_20,0.0012471285714526,conventional_load,5.835338627422103,residential,lv,,
Load_mvgd_1056_lvgd_97254_11,BranchTee_mvgd_1056_lvgd_97254_22,0.0012471285714526,conventional_load,5.835338627422103,residential,lv,,
Load_mvgd_1056_lvgd_97254_12,BranchTee_mvgd_1056_lvgd_97254_24,0.0012471285714526,conventional_load,5.835338627422103,residential,lv,,
Load_mvgd_1056_lvgd_97254_13,BranchTee_mvgd_1056_lvgd_97254_26,0.0012471285714526,conventional_load,5.835338627422103,residential,lv,,
Load_mvgd_1056_lvgd_97254_14,BranchTee_mvgd_1056_lvgd_97254_28,0.0012471285714526,conventional_load,5.835338627422103,residential,lv,,
Load_mvgd_1056_lvgd_97254_15,BranchTee_mvgd_1056_lvgd_97254_30,0.0012471285714526,conventional_load,5.835338627422103,residential,lv,,
Load_mvgd_1056_lvgd_97254_16,BranchTee_mvgd_1056_lvgd_97254_32,0.0012471285714526,conventional_load,5.835338627422103,residential,lv,,
Load_mvgd_1056_lvgd_97254_17,BranchTee_mvgd_1056_lvgd_97254_34,0.0012471285714526,conventional_load,5.835338627422103,residential,lv,,
Load_mvgd_1056_lvgd_97254_18,BranchTee_mvgd_1056_lvgd_97254_36,0.0012471285714526,conventional_load,5.835338627422103,residential,lv,,
Load_mvgd_1056_lvgd_97254_19,BranchTee_mvgd_1056_lvgd_97254_38,0.0012471285714526,conventional_load,5.835338627422103,residential,lv,,
Load_mvgd_1056_lvgd_97254_20,BranchTee_mvgd_1056_lvgd_97254_40,0.0012471285714526,conventional_load,5.835338627422103,residential,lv,,
Load_mvgd_1056_lvgd_97254_21,BranchTee_mvgd_1056_lvgd_97254_42,0.0012471285714526,conventional_load,5.835338627422103,residential,lv,,
Load_mvgd_1056_lvgd_97254_22,BranchTee_mvgd_1056_lvgd_97254_44,0.0012471285714526,conventional_load,5.835338627422103,residential,lv,,
Load_mvgd_1056_lvgd_97254_23,BranchTee_mvgd_1056_lvgd_97254_46,0.0012471285714526,conventional_load,5.835338627422103,residential,lv,,
Load_mvgd_1056_lvgd_97254_24,BranchTee_mvgd_1056_lvgd_97254_48,0.0012471285714526,conventional_load,5.835338627422103,residential,lv,,
Load_mvgd_1056_lvgd_97254_25,BranchTee_mvgd_1056_lvgd_97254_50,0.0012471285714526,conventional_load,5.835338627422103,residential,lv,,
Load_mvgd_1056_lvgd_97254_26,BranchTee_mvgd_1056_lvgd_97254_52,0.0012471285714526,conventional_load,5.835338627422103,residential,lv,,
Load_mvgd_1056_lvgd_97254_27,BranchTee_mvgd_1056_lvgd_97254_54,0.0012471285714526,conventional_load,5.835338627422103,residential,lv,,
Load_mvgd_1056_lvgd_97254_28,BranchTee_mvgd_1056_lvgd_97254_56,0.0012471285714526,conventional_load,5.835338627422103,residential,lv,,
Load_mvgd_1056_lvgd_97254_29,BranchTee_mvgd_1056_lvgd_97254_58,0.0012471285714526,conventional_load,5.835338627422103,residential,lv,,
Load_mvgd_1056_lvgd_97255_1,BranchTee_mvgd_1056_lvgd_97255_2,0.0321746909226118,conventional_load,133.860421545231,agricultural,lv,,
Load_mvgd_1056_lvgd_97255_2,BranchTee_mvgd_1056_lvgd_97255_4,0.0012819570815039,conventional_load,5.998301897360842,residential,lv,,
Load_mvgd_1056_lvgd_97255_3,BranchTee_mvgd_1056_lvgd_97255_6,0.0012819570815039,conventional_load,5.998301897360842,residential,lv,,
Load_mvgd_1056_lvgd_97255_4,BranchTee_mvgd_1056_lvgd_97255_8,0.0012819570815039,conventional_load,5.998301897360842,residential,lv,,
Load_mvgd_1056_lvgd_97255_5,BranchTee_mvgd_1056_lvgd_97255_10,0.0012819570815039,conventional_load,5.998301897360842,residential,lv,,
Load_mvgd_1056_lvgd_97255_6,BranchTee_mvgd_1056_lvgd_97255_12,0.0012819570815039,conventional_load,5.998301897360842,residential,lv,,
Load_mvgd_1056_lvgd_97255_7,BranchTee_mvgd_1056_lvgd_97255_14,0.0012819570815039,conventional_load,5.998301897360842,residential,lv,,
Load_mvgd_1056_lvgd_97255_8,BranchTee_mvgd_1056_lvgd_97255_16,0.0012819570815039,conventional_load,5.998301897360842,residential,lv,,
Load_mvgd_1056_lvgd_97255_9,BranchTee_mvgd_1056_lvgd_97255_18,0.0012819570815039,conventional_load,5.998301897360842,residential,lv,,
Load_mvgd_1056_lvgd_97255_10,BranchTee_mvgd_1056_lvgd_97255_20,0.0012819570815039,conventional_load,5.998301897360842,residential,lv,,
Load_mvgd_1056_lvgd_97255_11,BranchTee_mvgd_1056_lvgd_97255_22,0.0012819570815039,conventional_load,5.998301897360842,residential,lv,,
Load_mvgd_1056_lvgd_97255_12,BranchTee_mvgd_1056_lvgd_97255_24,0.0012819570815039,conventional_load,5.998301897360842,residential,lv,,
Load_mvgd_1056_lvgd_97255_13,BranchTee_mvgd_1056_lvgd_97255_26,0.0012819570815039,conventional_load,5.998301897360842,residential,lv,,
Load_mvgd_1056_lvgd_97255_14,BranchTee_mvgd_1056_lvgd_97255_28,0.0012819570815039,conventional_load,5.998301897360842,residential,lv,,
Load_mvgd_1056_lvgd_97255_15,BranchTee_mvgd_1056_lvgd_97255_30,0.0012819570815039,conventional_load,5.998301897360842,residential,lv,,
Load_mvgd_1056_lvgd_97255_16,BranchTee_mvgd_1056_lvgd_97255_32,0.0012819570815039,conventional_load,5.998301897360842,residential,lv,,
Load_mvgd_1056_lvgd_97255_17,BranchTee_mvgd_1056_lvgd_97255_34,0.0012819570815039,conventional_load,5.998301897360842,residential,lv,,
Load_mvgd_1056_lvgd_97255_18,BranchTee_mvgd_1056_lvgd_97255_36,0.0012819570815039,conventional_load,5.998301897360842,residential,lv,,
Load_mvgd_1056_lvgd_97255_19,BranchTee_mvgd_1056_lvgd_97255_38,0.0012819570815039,conventional_load,5.998301897360842,residential,lv,,
Load_mvgd_1056_lvgd_97255_20,BranchTee_mvgd_1056_lvgd_97255_40,0.0012819570815039,conventional_load,5.998301897360842,residential,lv,,
Load_mvgd_1056_lvgd_97255_21,BranchTee_mvgd_1056_lvgd_97255_42,0.0012819570815039,conventional_load,5.998301897360842,residential,lv,,
Load_mvgd_1056_lvgd_97255_22,BranchTee_mvgd_1056_lvgd_97255_44,0.0012819570815039,conventional_load,5.998301897360842,residential,lv,,
Load_mvgd_1056_lvgd_97255_23,BranchTee_mvgd_1056_lvgd_97255_46,0.0012819570815039,conventional_load,5.998301897360842,residential,lv,,
Load_mvgd_1056_lvgd_97255_24,BranchTee_mvgd_1056_lvgd_97255_48,0.0012819570815039,conventional_load,5.998301897360842,residential,lv,,
Load_mvgd_1056_lvgd_97255_25,BranchTee_mvgd_1056_lvgd_97255_50,0.0012819570815039,conventional_load,5.998301897360842,residential,lv,,
Load_mvgd_1056_lvgd_97255_26,BranchTee_mvgd_1056_lvgd_97255_52,0.0012819570815039,conventional_load,5.998301897360842,residential,lv,,
Load_mvgd_1056_lvgd_97255_27,BranchTee_mvgd_1056_lvgd_97255_54,0.0012819570815039,conventional_load,5.998301897360842,residential,lv,,
Load_mvgd_1056_lvgd_97255_28,BranchTee_mvgd_1056_lvgd_97255_56,0.0012819570815039,conventional_load,5.998301897360842,residential,lv,,
Load_mvgd_1056_lvgd_97255_29,BranchTee_mvgd_1056_lvgd_97255_58,0.0012819570815039,conventional_load,5.998301897360842,residential,lv,,
Load_mvgd_1056_lvgd_97255_30,BranchTee_mvgd_1056_lvgd_97255_60,0.0012819570815039,conventional_load,5.998301897360842,residential,lv,,
Load_mvgd_1056_lvgd_97255_31,BranchTee_mvgd_1056_lvgd_97255_62,0.0012819570815039,conventional_load,5.998301897360842,residential,lv,,
Load_mvgd_1056_lvgd_97255_32,BranchTee_mvgd_1056_lvgd_97255_64,0.0012819570815039,conventional_load,5.998301897360842,residential,lv,,
Load_mvgd_1056_lvgd_97255_33,BranchTee_mvgd_1056_lvgd_97255_66,0.0012819570815039,conventional_load,5.998301897360842,residential,lv,,
Load_mvgd_1056_lvgd_97255_34,BranchTee_mvgd_1056_lvgd_97255_68,0.0012819570815039,conventional_load,5.998301897360842,residential,lv,,
Load_mvgd_1056_lvgd_97255_35,BranchTee_mvgd_1056_lvgd_97255_70,0.0012819570815039,conventional_load,5.998301897360842,residential,lv,,
Load_mvgd_1056_lvgd_97255_36,BranchTee_mvgd_1056_lvgd_97255_72,0.0012819570815039,conventional_load,5.998301897360842,residential,lv,,
Load_mvgd_1056_lvgd_97255_37,BranchTee_mvgd_1056_lvgd_97255_74,0.0012819570815039,conventional_load,5.998301897360842,residential,lv,,
Load_mvgd_1056_lvgd_97255_38,BranchTee_mvgd_1056_lvgd_97255_76,0.0012819570815039,conventional_load,5.998301897360842,residential,lv,,
Load_mvgd_1056_lvgd_97255_39,BranchTee_mvgd_1056_lvgd_97255_78,0.0012819570815039,conventional_load,5.998301897360842,residential,lv,,
Load_mvgd_1056_lvgd_97290_1,BranchTee_mvgd_1056_lvgd_97290_2,0.001279367269218,conventional_load,5.98618411575,residential,lv,,
Load_mvgd_1056_lvgd_97290_2,BranchTee_mvgd_1056_lvgd_97290_4,0.001279367269218,conventional_load,5.98618411575,residential,lv,,
Load_mvgd_1056_lvgd_97290_3,BranchTee_mvgd_1056_lvgd_97290_6,0.001279367269218,conventional_load,5.98618411575,residential,lv,,
Load_mvgd_1056_lvgd_97290_4,BranchTee_mvgd_1056_lvgd_97290_8,0.001279367269218,conventional_load,5.98618411575,residential,lv,,
Load_mvgd_1056_lvgd_97290_5,BranchTee_mvgd_1056_lvgd_97290_10,0.001279367269218,conventional_load,5.98618411575,residential,lv,,
Load_mvgd_1056_lvgd_97290_6,BranchTee_mvgd_1056_lvgd_97290_12,0.001279367269218,conventional_load,5.98618411575,residential,lv,,
Load_mvgd_1056_lvgd_97290_7,BranchTee_mvgd_1056_lvgd_97290_14,0.001279367269218,conventional_load,5.98618411575,residential,lv,,
Load_mvgd_1056_lvgd_97290_8,BranchTee_mvgd_1056_lvgd_97290_16,0.001279367269218,conventional_load,5.98618411575,residential,lv,,
Load_mvgd_1056_lvgd_97290_9,BranchTee_mvgd_1056_lvgd_97290_18,0.001279367269218,conventional_load,5.98618411575,residential,lv,,
Load_mvgd_1056_lvgd_97290_10,BranchTee_mvgd_1056_lvgd_97290_20,0.001279367269218,conventional_load,5.98618411575,residential,lv,,
Load_mvgd_1056_lvgd_97290_11,BranchTee_mvgd_1056_lvgd_97290_22,0.001279367269218,conventional_load,5.98618411575,residential,lv,,
Load_mvgd_1056_lvgd_97290_12,BranchTee_mvgd_1056_lvgd_97290_24,0.001279367269218,conventional_load,5.98618411575,residential,lv,,
Load_mvgd_1056_lvgd_97290_13,BranchTee_mvgd_1056_lvgd_97290_26,0.001279367269218,conventional_load,5.98618411575,residential,lv,,
Load_mvgd_1056_lvgd_97290_14,BranchTee_mvgd_1056_lvgd_97290_28,0.001279367269218,conventional_load,5.98618411575,residential,lv,,
Load_mvgd_1056_lvgd_97290_15,BranchTee_mvgd_1056_lvgd_97290_30,0.001279367269218,conventional_load,5.98618411575,residential,lv,,
Load_mvgd_1056_lvgd_97290_16,BranchTee_mvgd_1056_lvgd_97290_32,0.001279367269218,conventional_load,5.98618411575,residential,lv,,
Load_mvgd_1056_lvgd_97290_17,BranchTee_mvgd_1056_lvgd_97290_34,0.001279367269218,conventional_load,5.98618411575,residential,lv,,
Load_mvgd_1056_lvgd_97290_18,BranchTee_mvgd_1056_lvgd_97290_36,0.001279367269218,conventional_load,5.98618411575,residential,lv,,
Load_mvgd_1056_lvgd_97290_19,BranchTee_mvgd_1056_lvgd_97290_38,0.001279367269218,conventional_load,5.98618411575,residential,lv,,
Load_mvgd_1056_lvgd_97290_20,BranchTee_mvgd_1056_lvgd_97290_40,0.001279367269218,conventional_load,5.98618411575,residential,lv,,
Load_mvgd_1056_lvgd_97290_21,BranchTee_mvgd_1056_lvgd_97290_42,0.001279367269218,conventional_load,5.98618411575,residential,lv,,
Load_mvgd_1056_lvgd_97290_22,BranchTee_mvgd_1056_lvgd_97290_44,0.001279367269218,conventional_load,5.98618411575,residential,lv,,
Load_mvgd_1056_lvgd_97290_23,BranchTee_mvgd_1056_lvgd_97290_46,0.001279367269218,conventional_load,5.98618411575,residential,lv,,
Load_mvgd_1056_lvgd_97290_24,BranchTee_mvgd_1056_lvgd_97290_48,0.001279367269218,conventional_load,5.98618411575,residential,lv,,
Load_mvgd_1056_lvgd_97290_25,BranchTee_mvgd_1056_lvgd_97290_50,0.001279367269218,conventional_load,5.98618411575,residential,lv,,
Load_mvgd_1056_lvgd_97290_26,BranchTee_mvgd_1056_lvgd_97290_52,0.001279367269218,conventional_load,5.98618411575,residential,lv,,
Load_mvgd_1056_lvgd_97290_27,BranchTee_mvgd_1056_lvgd_97290_54,0.001279367269218,conventional_load,5.98618411575,residential,lv,,
Load_mvgd_1056_lvgd_97290_28,BranchTee_mvgd_1056_lvgd_97290_56,0.001279367269218,conventional_load,5.98618411575,residential,lv,,
Load_mvgd_1056_lvgd_97290_29,BranchTee_mvgd_1056_lvgd_97290_58,0.001279367269218,conventional_load,5.98618411575,residential,lv,,
Load_mvgd_1056_lvgd_97290_30,BranchTee_mvgd_1056_lvgd_97290_60,0.001279367269218,conventional_load,5.98618411575,residential,lv,,
Load_mvgd_1056_lvgd_97333_1,BranchTee_mvgd_1056_lvgd_97333_2,0.0012916688775759,conventional_load,6.0437435784014575,residential,lv,,
Load_mvgd_1056_lvgd_97333_2,BranchTee_mvgd_1056_lvgd_97333_4,0.0012916688775759,conventional_load,6.0437435784014575,residential,lv,,
Load_mvgd_1056_lvgd_97333_3,BranchTee_mvgd_1056_lvgd_97333_6,0.0012916688775759,conventional_load,6.0437435784014575,residential,lv,,
Load_mvgd_1056_lvgd_97333_4,BranchTee_mvgd_1056_lvgd_97333_8,0.0012916688775759,conventional_load,6.0437435784014575,residential,lv,,
Load_mvgd_1056_lvgd_97333_5,BranchTee_mvgd_1056_lvgd_97333_10,0.0012916688775759,conventional_load,6.0437435784014575,residential,lv,,
Load_mvgd_1056_lvgd_97333_6,BranchTee_mvgd_1056_lvgd_97333_12,0.0012916688775759,conventional_load,6.0437435784014575,residential,lv,,
Load_mvgd_1056_lvgd_97333_7,BranchTee_mvgd_1056_lvgd_97333_14,0.0012916688775759,conventional_load,6.0437435784014575,residential,lv,,
Load_mvgd_1056_lvgd_97333_8,BranchTee_mvgd_1056_lvgd_97333_16,0.0012916688775759,conventional_load,6.0437435784014575,residential,lv,,
Load_mvgd_1056_lvgd_97333_9,BranchTee_mvgd_1056_lvgd_97333_18,0.0012916688775759,conventional_load,6.0437435784014575,residential,lv,,
Load_mvgd_1056_lvgd_97333_10,BranchTee_mvgd_1056_lvgd_97333_20,0.0012916688775759,conventional_load,6.0437435784014575,residential,lv,,
Load_mvgd_1056_lvgd_97333_11,BranchTee_mvgd_1056_lvgd_97333_22,0.0012916688775759,conventional_load,6.0437435784014575,residential,lv,,
Load_mvgd_1056_lvgd_97333_12,BranchTee_mvgd_1056_lvgd_97333_24,0.0012916688775759,conventional_load,6.0437435784014575,residential,lv,,
Load_mvgd_1056_lvgd_97333_13,BranchTee_mvgd_1056_lvgd_97333_26,0.0012916688775759,conventional_load,6.0437435784014575,residential,lv,,
Load_mvgd_1056_lvgd_97333_14,BranchTee_mvgd_1056_lvgd_97333_28,0.0012916688775759,conventional_load,6.0437435784014575,residential,lv,,
...
Charging_Point_LVGrid_109034_home_1,BranchTee_mvgd_1056_lvgd_109034_52,0.022,charging_point,,home,lv,0.022,POINT (10.805916206752217 50.02987268930234)
Charging_Point_LVGrid_109034_home_2,BranchTee_mvgd_1056_lvgd_109034_28,0.0037,charging_point,,home,lv,0.0037,POINT (10.805916206752217 50.02987268930234)
Charging_Point_LVGrid_109035_home_1,BranchTee_mvgd_1056_lvgd_109035_46,0.0037,charging_point,,home,lv,0.0037,POINT (10.804566130606215 50.03257978717685)
Charging_Point_LVGrid_109035_home_2,BranchTee_mvgd_1056_lvgd_109035_118,0.033,charging_point,,home,lv,0.033,POINT (10.807326798514168 50.03076188476467)
Charging_Point_LVGrid_109035_home_3,BranchTee_mvgd_1056_lvgd_109035_38,0.011,charging_point,,home,lv,0.011,POINT (10.804535897680061 50.03078163212067)
Charging_Point_LVGrid_109035_home_4,BranchTee_mvgd_1056_lvgd_109035_98,0.011,charging_point,,home,lv,0.011,POINT (10.804566130606215 50.03257978717685)
Charging_Point_LVGrid_109035_home_5,BranchTee_mvgd_1056_lvgd_109035_48,0.022,charging_point,,home,lv,0.022,POINT (10.807326798514168 50.03076188476467)
Charging_Point_LVGrid_109037_home_1,BranchTee_mvgd_1056_lvgd_109037_16,0.022,charging_point,,home,lv,0.022,POINT (10.808722248137922 50.03075198544378)
Charging_Point_LVGrid_109035_home_6,BranchTee_mvgd_1056_lvgd_109035_64,0.022,charging_point,,home,lv,0.022,POINT (10.807341967048234 50.03166096199023)
Charging_Point_LVGrid_109037_home_2,BranchTee_mvgd_1056_lvgd_109037_16,0.0147,charging_point,,home,lv,0.0147,POINT (10.8087374428851 50.03165106245534)
Charging_Point_LVGrid_109035_home_7,BranchTee_mvgd_1056_lvgd_109035_112,0.011,charging_point,,home,lv,0.011,POINT (10.807341967048234 50.03166096199023)
Charging_Point_LVGrid_109037_home_3,BranchTee_mvgd_1056_lvgd_109037_52,0.011,charging_point,,home,lv,0.011,POINT (10.8087374428851 50.03165106245534)
Charging_Point_LVGrid_109035_home_8,BranchTee_mvgd_1056_lvgd_109035_18,0.055,charging_point,,home,lv,0.055,POINT (10.805961633715011 50.03256992161996)
Charging_Point_LVGrid_109035_home_9,BranchTee_mvgd_1056_lvgd_109035_8,0.022,charging_point,,home,lv,0.022,POINT (10.803170626970005 50.032589635637734)
Charging_Point_LVGrid_109035_home_10,BranchTee_mvgd_1056_lvgd_109035_60,0.011,charging_point,,home,lv,0.011,POINT (10.805946490682159 50.03167084442949)
Charging_Point_LVGrid_109035_home_11,BranchTee_mvgd_1056_lvgd_109035_150,0.011,charging_point,,home,lv,0.011,POINT (10.803170626970005 50.032589635637734)
Charging_Point_LVGrid_109036_home_1,BranchTee_mvgd_1056_lvgd_109036_56,0.011,charging_point,,home,lv,0.011,POINT (10.808707054105094 50.029852908183415)
Charging_Point_LVGrid_109036_home_2,BranchTee_mvgd_1056_lvgd_109036_20,0.011,charging_point,,home,lv,0.011,POINT (10.811497899337779 50.029833058684986)
Charging_Point_LVGrid_109037_home_4,BranchTee_mvgd_1056_lvgd_109037_48,0.011,charging_point,,home,lv,0.011,POINT (10.81011769723159 50.03074206902765)
Charging_Point_LVGrid_109191_home_1,BranchTee_mvgd_1056_lvgd_109191_6,0.022,charging_point,,home,lv,0.022,POINT (10.789334214562576 50.03987980882269)
Charging_Point_LVGrid_109191_home_2,BranchTee_mvgd_1056_lvgd_109191_32,0.011,charging_point,,home,lv,0.011,POINT (10.78934904929637 50.04077888631313)
Charging_Point_LVGrid_109036_home_3,BranchTee_mvgd_1056_lvgd_109036_20,0.011,charging_point,,home,lv,0.011,POINT (10.80869186078657 50.028953830674205)
Charging_Point_LVGrid_109191_home_3,BranchTee_mvgd_1056_lvgd_109191_26,0.011,charging_point,,home,lv,0.011,POINT (10.78795330392959 50.04078854859708)
Charging_Point_LVGrid_109191_home_4,BranchTee_mvgd_1056_lvgd_109191_6,0.0037,charging_point,,home,lv,0.0037,POINT (10.789334214562576 50.03987980882269)
Charging_Point_LVGrid_109191_home_5,BranchTee_mvgd_1056_lvgd_109191_38,0.011,charging_point,,home,lv,0.011,POINT (10.78934904929637 50.04077888631313)
Charging_Point_LVGrid_109191_home_6,BranchTee_mvgd_1056_lvgd_109191_14,0.011,charging_point,,home,lv,0.011,POINT (10.78795330392959 50.04078854859708)
Charging_Point_LVGrid_109036_home_4,BranchTee_mvgd_1056_lvgd_109036_72,0.022,charging_point,,home,lv,0.022,POINT (10.811467408575083 50.02803490427574)
Charging_Point_LVGrid_109034_home_3,BranchTee_mvgd_1056_lvgd_109034_88,0.022,charging_point,,home,lv,0.022,POINT (10.803110268810762 50.028993323678776)
Charging_Point_LVGrid_109037_home_5,BranchTee_mvgd_1056_lvgd_109037_62,0.011,charging_point,,home,lv,0.011,POINT (10.810132918191844 50.031641145824835)
Charging_Point_LVGrid_109037_home_6,BranchTee_mvgd_1056_lvgd_109037_36,0.0037,charging_point,,home,lv,0.0037,POINT (10.808767834522714 50.03344921573229)
Charging_Point_LVGrid_109034_home_4,BranchTee_mvgd_1056_lvgd_109034_72,0.022,charging_point,,home,lv,0.022,POINT (10.803110268810762 50.028993323678776)
Charging_Point_LVGrid_109037_home_7,BranchTee_mvgd_1056_lvgd_109037_4,0.0037,charging_point,,home,lv,0.0037,POINT (10.810132918191844 50.031641145824835)
Charging_Point_LVGrid_109034_home_5,BranchTee_mvgd_1056_lvgd_109034_32,0.0037,charging_point,,home,lv,0.0037,POINT (10.801714869498642 50.02900315419356)
Charging_Point_LVGrid_109036_home_5,BranchTee_mvgd_1056_lvgd_109036_22,0.022,charging_point,,home,lv,0.022,POINT (10.811467408575083 50.02803490427574)
Charging_Point_LVGrid_109037_home_8,BranchTee_mvgd_1056_lvgd_109037_72,0.022,charging_point,,home,lv,0.022,POINT (10.811513145794255 50.030732135516274)
Charging_Point_LVGrid_97731_home_1,BranchTee_mvgd_1056_lvgd_97731_182,0.0147,charging_point,,home,lv,0.0147,POINT (10.802891856364528 50.099130540183545)
Charging_Point_LVGrid_97735_home_1,BranchTee_mvgd_1056_lvgd_97735_212,0.0184,charging_point,,home,lv,0.0184,POINT (10.80990958744197 50.10087924963557)
Charging_Point_LVGrid_97735_home_2,BranchTee_mvgd_1056_lvgd_97735_144,0.011,charging_point,,home,lv,0.011,POINT (10.80990958744197 50.10087924963557)
Charging_Point_LVGrid_97722_home_1,BranchTee_mvgd_1056_lvgd_97722_54,0.0037,charging_point,,home,lv,0.0037,POINT (10.791637732335278 50.09471339188619)
Charging_Point_LVGrid_97722_home_2,BranchTee_mvgd_1056_lvgd_97722_68,0.011,charging_point,,home,lv,0.011,POINT (10.793035052478537 50.09470368280483)
Charging_Point_LVGrid_97722_home_3,BranchTee_mvgd_1056_lvgd_97722_166,0.011,charging_point,,home,lv,0.011,POINT (10.793035052478537 50.09470368280483)
Charging_Point_LVGrid_97728_home_1,BranchTee_mvgd_1056_lvgd_97728_28,0.044,charging_point,,home,lv,0.044,POINT (10.795934584075841 50.10097763948678)
Charging_Point_LVGrid_97723_home_1,BranchTee_mvgd_1056_lvgd_97723_74,0.0147,charging_point,,home,lv,0.0147,POINT (10.794462285362094 50.096492080020795)
Charging_Point_LVGrid_97722_home_4,BranchTee_mvgd_1056_lvgd_97722_54,0.011,charging_point,,home,lv,0.011,POINT (10.793049982456242 50.0956027448473)
Charging_Point_LVGrid_97723_home_2,BranchTee_mvgd_1056_lvgd_97723_70,0.011,charging_point,,home,lv,0.011,POINT (10.794462285362094 50.096492080020795)
Charging_Point_LVGrid_97723_home_3,BranchTee_mvgd_1056_lvgd_97723_52,0.011,charging_point,,home,lv,0.011,POINT (10.794462285362094 50.096492080020795)
Charging_Point_LVGrid_97722_home_5,BranchTee_mvgd_1056_lvgd_97722_138,0.011,charging_point,,home,lv,0.011,POINT (10.793049982456242 50.0956027448473)
Charging_Point_LVGrid_97728_home_2,BranchTee_mvgd_1056_lvgd_97728_44,0.011,charging_point,,home,lv,0.011,POINT (10.800112024888975 50.1000492428171)
Charging_Point_LVGrid_97728_home_3,BranchTee_mvgd_1056_lvgd_97728_130,0.011,charging_point,,home,lv,0.011,POINT (10.800112024888975 50.1000492428171)
Charging_Point_LVGrid_97722_home_6,BranchTee_mvgd_1056_lvgd_97722_178,0.022,charging_point,,home,lv,0.022,POINT (10.794417416525274 50.093794894525274)
Charging_Point_LVGrid_97722_home_7,BranchTee_mvgd_1056_lvgd_97722_48,0.011,charging_point,,home,lv,0.011,POINT (10.794417416525274 50.093794894525274)
Charging_Point_LVGrid_97723_home_4,BranchTee_mvgd_1056_lvgd_97723_92,0.0037,charging_point,,home,lv,0.0037,POINT (10.793079844520648 50.09740086819839)
Charging_Point_LVGrid_97723_home_5,BranchTee_mvgd_1056_lvgd_97723_28,0.044,charging_point,,home,lv,0.044,POINT (10.793079844520648 50.09740086819839)
Charging_Point_LVGrid_97725_home_1,BranchTee_mvgd_1056_lvgd_97725_118,0.022,charging_point,,home,lv,0.022,POINT (10.799961406507006 50.0910586341835)
Charging_Point_LVGrid_97732_home_1,BranchTee_mvgd_1056_lvgd_97732_8,0.011,charging_point,,home,lv,0.011,POINT (10.802906974008692 50.10002959952064)
Charging_Point_LVGrid_97732_home_2,BranchTee_mvgd_1056_lvgd_97732_68,0.011,charging_point,,home,lv,0.011,POINT (10.80292209236474 50.1009286586133)
Charging_Point_LVGrid_97722_home_8,BranchTee_mvgd_1056_lvgd_97722_178,0.011,charging_point,,home,lv,0.011,POINT (10.79444732837895 50.09559301843362)
Charging_Point_LVGrid_97722_home_9,BranchTee_mvgd_1056_lvgd_97722_256,0.0037,charging_point,,home,lv,0.0037,POINT (10.793020123203764 50.09380462051766)
Charging_Point_LVGrid_97732_home_3,BranchTee_mvgd_1056_lvgd_97732_120,0.044,charging_point,,home,lv,0.044,POINT (10.801509499712587 50.10003942973077)
Charging_Point_LVGrid_97732_home_4,BranchTee_mvgd_1056_lvgd_97732_250,0.0037,charging_point,,home,lv,0.0037,POINT (10.801509499712587 50.10003942973077)
Charging_Point_LVGrid_97728_home_4,BranchTee_mvgd_1056_lvgd_97728_16,0.0037,charging_point,,home,lv,0.0037,POINT (10.7973170736629 50.10006881761828)
Charging_Point_LVGrid_97726_home_1,BranchTee_mvgd_1056_lvgd_97726_124,0.0257,charging_point,,home,lv,0.0257,POINT (10.79860929335023 50.093765613820594)
Charging_Point_LVGrid_97727_home_1,BranchTee_mvgd_1056_lvgd_97727_58,0.011,charging_point,,home,lv,0.011,POINT (10.800066831927744 50.09735206279587)
Charging_Point_LVGrid_97731_home_2,BranchTee_mvgd_1056_lvgd_97731_248,0.022,charging_point,,home,lv,0.022,POINT (10.80146422783341 50.097342250347204)
Charging_Point_LVGrid_97726_home_2,BranchTee_mvgd_1056_lvgd_97726_120,0.022,charging_point,,home,lv,0.022,POINT (10.800006584575627 50.09375581934322)
Charging_Point_LVGrid_97735_home_3,BranchTee_mvgd_1056_lvgd_97735_210,0.011,charging_point,,home,lv,0.011,POINT (10.807099393722748 50.10000000614748)
Charging_Point_LVGrid_97735_home_4,BranchTee_mvgd_1056_lvgd_97735_158,0.011,charging_point,,home,lv,0.011,POINT (10.807099393722748 50.10000000614748)
Charging_Point_LVGrid_97732_home_5,BranchTee_mvgd_1056_lvgd_97732_138,0.011,charging_point,,home,lv,0.011,POINT (10.804319592440798 50.10091881106606)
Charging_Point_LVGrid_97731_home_3,BranchTee_mvgd_1056_lvgd_97731_220,0.0147,charging_point,,home,lv,0.0147,POINT (10.801479317749232 50.09824131038624)
Charging_Point_LVGrid_97726_home_3,BranchTee_mvgd_1056_lvgd_97726_68,0.011,charging_point,,home,lv,0.011,POINT (10.798639363007048 50.09556373646057)
Charging_Point_LVGrid_97728_home_5,BranchTee_mvgd_1056_lvgd_97728_124,0.022,charging_point,,home,lv,0.022,POINT (10.79594957159515 50.10187669939613)
Charging_Point_LVGrid_97734_home_1,BranchTee_mvgd_1056_lvgd_97734_84,0.0257,charging_point,,home,lv,0.0257,POINT (10.808481643027108 50.09909104896056)
Charging_Point_LVGrid_97724_home_1,BranchTee_mvgd_1056_lvgd_97724_20,0.0037,charging_point,,home,lv,0.0037,POINT (10.794552042052233 50.101886444409296)
Charging_Point_LVGrid_97726_home_4,BranchTee_mvgd_1056_lvgd_97726_28,0.011,charging_point,,home,lv,0.011,POINT (10.798639363007048 50.09556373646057)
Charging_Point_LVGrid_97726_home_5,BranchTee_mvgd_1056_lvgd_97726_68,0.0037,charging_point,,home,lv,0.0037,POINT (10.798639363007048 50.09556373646057)
Charging_Point_LVGrid_97728_home_6,BranchTee_mvgd_1056_lvgd_97728_174,0.011,charging_point,,home,lv,0.011,POINT (10.79594957159515 50.10187669939613)
Charging_Point_LVGrid_97851_home_1,BranchTee_mvgd_1056_lvgd_97851_56,0.0037,charging_point,,home,lv,0.0037,POINT (10.753597805958645 50.07518951173914)
Charging_Point_LVGrid_97734_home_2,BranchTee_mvgd_1056_lvgd_97734_136,0.011,charging_point,,home,lv,0.011,POINT (10.811230711025726 50.09637402498606)
Charging_Point_LVGrid_99001_home_1,BranchTee_mvgd_1056_lvgd_99001_44,0.022,charging_point,,home,lv,0.022,POINT (10.663119623402766 50.09823061894814)
Charging_Point_LVGrid_97725_home_2,BranchTee_mvgd_1056_lvgd_97725_174,0.011,charging_point,,home,lv,0.011,POINT (10.795799728154801 50.09288608930136)
Charging_Point_LVGrid_98712_home_1,BranchTee_mvgd_1056_lvgd_98712_98,0.011,charging_point,,home,lv,0.011,POINT (10.688131022114632 50.08819172756695)
Charging_Point_LVGrid_98952_home_1,BranchTee_mvgd_1056_lvgd_98952_64,0.022,charging_point,,home,lv,0.022,POINT (10.758173263652598 50.099436606817314)
Charging_Point_LVGrid_97734_home_3,BranchTee_mvgd_1056_lvgd_97734_96,0.022,charging_point,,home,lv,0.022,POINT (10.809879088364884 50.099081133346324)
Charging_Point_LVGrid_97728_home_7,BranchTee_mvgd_1056_lvgd_97728_18,0.011,charging_point,,home,lv,0.011,POINT (10.798729588969447 50.100958098509984)
Charging_Point_LVGrid_97735_home_5,BranchTee_mvgd_1056_lvgd_97735_138,0.022,charging_point,,home,lv,0.022,POINT (10.807114591003835 50.10089906459909)
Charging_Point_LVGrid_97732_home_6,BranchTee_mvgd_1056_lvgd_97732_186,0.011,charging_point,,home,lv,0.011,POINT (10.804304447776364 50.10001975218671)
Charging_Point_LVGrid_98712_home_2,BranchTee_mvgd_1056_lvgd_98712_52,0.011,charging_point,,home,lv,0.011,POINT (10.688131022114632 50.08819172756695)
Charging_Point_LVGrid_97729_home_1,BranchTee_mvgd_1056_lvgd_97729_168,0.011,charging_point,,home,lv,0.011,POINT (10.8041681778814 50.09192821126599)
Charging_Point_LVGrid_99310_home_1,BranchTee_mvgd_1056_lvgd_99310_20,0.011,charging_point,,home,lv,0.011,POINT (10.786344548428094 50.112733272391225)
Charging_Point_LVGrid_97735_home_6,BranchTee_mvgd_1056_lvgd_97735_198,0.011,charging_point,,home,lv,0.011,POINT (10.807114591003835 50.10089906459909)
Charging_Point_LVGrid_97731_home_4,BranchTee_mvgd_1056_lvgd_97731_140,0.011,charging_point,,home,lv,0.011,POINT (10.805656412382355 50.09731271026506)
Charging_Point_LVGrid_97731_home_5,BranchTee_mvgd_1056_lvgd_97731_82,0.0367,charging_point,,home,lv,0.0367,POINT (10.805656412382355 50.09731271026506)
Charging_Point_LVGrid_98952_home_2,BranchTee_mvgd_1056_lvgd_98952_52,0.0147,charging_point,,home,lv,0.0147,POINT (10.758158988528969 50.09853754060612)
Charging_Point_LVGrid_97733_home_1,BranchTee_mvgd_1056_lvgd_97733_168,0.011,charging_point,,home,lv,0.011,POINT (10.809818098826707 50.09548489783291)
Charging_Point_LVGrid_97727_home_2,BranchTee_mvgd_1056_lvgd_97727_86,0.011,charging_point,,home,lv,0.011,POINT (10.800081895538824 50.098251123047454)
Charging_Point_LVGrid_97725_home_3,BranchTee_mvgd_1056_lvgd_97725_144,0.011,charging_point,,home,lv,0.011,POINT (10.799946348568724 50.090159571973714)
Charging_Point_LVGrid_98713_home_1,BranchTee_mvgd_1056_lvgd_98713_14,0.022,charging_point,,home,lv,0.022,POINT (10.689541146631068 50.08908236553307)
Charging_Point_LVGrid_97729_home_2,BranchTee_mvgd_1056_lvgd_97729_188,0.011,charging_point,,home,lv,0.011,POINT (10.802770940833451 50.09193805668056)
Charging_Point_LVGrid_97732_home_7,BranchTee_mvgd_1056_lvgd_97732_164,0.022,charging_point,,home,lv,0.022,POINT (10.805717091987468 50.10090894639465)
Charging_Point_LVGrid_97733_home_2,BranchTee_mvgd_1056_lvgd_97733_52,0.011,charging_point,,home,lv,0.011,POINT (10.809787608364841 50.09368677860785)
Charging_Point_LVGrid_98712_home_3,BranchTee_mvgd_1056_lvgd_98712_6,0.033,charging_point,,home,lv,0.033,POINT (10.688156927533823 50.08998988479965)
Charging_Point_LVGrid_97735_home_7,BranchTee_mvgd_1056_lvgd_97735_26,0.055,charging_point,,home,lv,0.055,POINT (10.808512089488975 50.10088916567939)
Charging_Point_LVGrid_97729_home_3,BranchTee_mvgd_1056_lvgd_97729_170,0.0147,charging_point,,home,lv,0.0147,POINT (10.802755829594123 50.09103899514106)
Charging_Point_LVGrid_97732_home_8,BranchTee_mvgd_1056_lvgd_97732_178,0.011,charging_point,,home,lv,0.011,POINT (10.801539684518545 50.10183754809762)
Charging_Point_LVGrid_97341_home_1,BranchTee_mvgd_1056_lvgd_97341_12,0.011,charging_point,,home,lv,0.011,POINT (10.76420924330762 50.1272702140657)
Charging_Point_LVGrid_97735_home_8,BranchTee_mvgd_1056_lvgd_97735_74,0.022,charging_point,,home,lv,0.022,POINT (10.80852731379522 50.101788223672166)
Charging_Point_LVGrid_97725_home_4,BranchTee_mvgd_1056_lvgd_97725_28,0.022,charging_point,,home,lv,0.022,POINT (10.799946348568724 50.090159571973714)
Charging_Point_LVGrid_98713_home_2,BranchTee_mvgd_1056_lvgd_98713_42,0.011,charging_point,,home,lv,0.011,POINT (10.689541146631068 50.08908236553307)
Charging_Point_LVGrid_97729_home_4,BranchTee_mvgd_1056_lvgd_97729_10,0.011,charging_point,,home,lv,0.011,POINT (10.802770940833451 50.09193805668056)
Charging_Point_LVGrid_97733_home_3,BranchTee_mvgd_1056_lvgd_97733_116,0.0147,charging_point,,home,lv,0.0147,POINT (10.809787608364841 50.09368677860785)
Charging_Point_LVGrid_98712_home_4,BranchTee_mvgd_1056_lvgd_98712_62,0.011,charging_point,,home,lv,0.011,POINT (10.688156927533823 50.08998988479965)
Charging_Point_LVGrid_97725_home_5,BranchTee_mvgd_1056_lvgd_97725_138,0.022,charging_point,,home,lv,0.022,POINT (10.798579226524764 50.09196749020144)
Charging_Point_LVGrid_97735_home_9,BranchTee_mvgd_1056_lvgd_97735_64,0.011,charging_point,,home,lv,0.011,POINT (10.808512089488975 50.10088916567939)
Charging_Point_LVGrid_97735_home_10,BranchTee_mvgd_1056_lvgd_97735_60,0.0147,charging_point,,home,lv,0.0147,POINT (10.808512089488975 50.10088916567939)
Charging_Point_LVGrid_97729_home_5,BranchTee_mvgd_1056_lvgd_97729_70,0.011,charging_point,,home,lv,0.011,POINT (10.802770940833451 50.09193805668056)
Charging_Point_LVGrid_97728_home_8,BranchTee_mvgd_1056_lvgd_97728_108,0.011,charging_point,,home,lv,0.011,POINT (10.798744629108342 50.10185715799602)
Charging_Point_LVGrid_97829_home_1,BranchTee_mvgd_1056_lvgd_97829_28,0.033,charging_point,,home,lv,0.033,POINT (10.771784630613796 50.07686616666115)
Charging_Point_LVGrid_99310_home_2,BranchTee_mvgd_1056_lvgd_99310_14,0.0147,charging_point,,home,lv,0.0147,POINT (10.786329736709945 50.11183421393861)
Charging_Point_LVGrid_97718_home_1,BranchTee_mvgd_1056_lvgd_97718_80,0.011,charging_point,,home,lv,0.011,POINT (10.787238295236246 50.082155510346595)
Charging_Point_LVGrid_97731_home_6,BranchTee_mvgd_1056_lvgd_97731_212,0.011,charging_point,,home,lv,0.011,POINT (10.80567158121218 50.098211769664246)
Charging_Point_LVGrid_97728_home_9,BranchTee_mvgd_1056_lvgd_97728_166,0.0574,charging_point,,home,lv,0.0574,POINT (10.800127090628145 50.10094830233528)
Charging_Point_LVGrid_99143_home_1,BranchTee_mvgd_1056_lvgd_99143_20,0.011,charging_point,,home,lv,0.011,POINT (10.733060237452747 50.10229827148781)
Charging_Point_LVGrid_99308_home_1,BranchTee_mvgd_1056_lvgd_99308_8,0.011,charging_point,,home,lv,0.011,POINT (10.78348981780428 50.109156273609685)
Charging_Point_LVGrid_97333_home_1,BranchTee_mvgd_1056_lvgd_97333_18,0.011,charging_point,,home,lv,0.011,POINT (10.740354729267406 50.12203257844166)
Charging_Point_LVGrid_97723_home_6,BranchTee_mvgd_1056_lvgd_97723_100,0.022,charging_point,,home,lv,0.022,POINT (10.794477243049505 50.09739114136336)
Charging_Point_LVGrid_97851_home_2,BranchTee_mvgd_1056_lvgd_97851_50,0.011,charging_point,,home,lv,0.011,POINT (10.753626164300272 50.07698765785446)
Charging_Point_LVGrid_504532_home_1,BranchTee_mvgd_1056_lvgd_504532_8,0.0037,charging_point,,home,lv,0.0037,POINT (10.753938282322014 50.09676720039985)
Charging_Point_LVGrid_99143_home_2,BranchTee_mvgd_1056_lvgd_99143_34,0.022,charging_point,,home,lv,0.022,POINT (10.731648908057263 50.10140817664777)
Charging_Point_LVGrid_97195_home_1,BranchTee_mvgd_1056_lvgd_97195_8,0.011,charging_point,,home,lv,0.011,POINT (10.780826691801723 50.117266972964025)
Charging_Point_LVGrid_97334_home_1,BranchTee_mvgd_1056_lvgd_97334_12,0.0037,charging_point,,home,lv,0.0037,POINT (10.744549113058632 50.12200528261853)
Charging_Point_LVGrid_97722_home_10,BranchTee_mvgd_1056_lvgd_97722_66,0.011,charging_point,,home,lv,0.011,POINT (10.794402461654645 50.09289583220401)
Charging_Point_LVGrid_97734_home_4,BranchTee_mvgd_1056_lvgd_97734_54,0.011,charging_point,,home,lv,0.011,POINT (10.807084197157266 50.09910094745141)
Charging_Point_LVGrid_99310_home_3,BranchTee_mvgd_1056_lvgd_99310_32,0.011,charging_point,,home,lv,0.011,POINT (10.786329736709945 50.11183421393861)
Charging_Point_LVGrid_97718_home_2,BranchTee_mvgd_1056_lvgd_97718_22,0.0147,charging_point,,home,lv,0.0147,POINT (10.787238295236246 50.082155510346595)
Charging_Point_LVGrid_97728_home_10,BranchTee_mvgd_1056_lvgd_97728_102,0.011,charging_point,,home,lv,0.011,POINT (10.800127090628145 50.10094830233528)
Charging_Point_LVGrid_97729_home_6,BranchTee_mvgd_1056_lvgd_97729_130,0.0147,charging_point,,home,lv,0.0147,POINT (10.801373703257418 50.091947884974665)
Charging_Point_LVGrid_97733_home_4,BranchTee_mvgd_1056_lvgd_97733_120,0.044,charging_point,,home,lv,0.044,POINT (10.81120016652547 50.09457590668081)
Charging_Point_LVGrid_97723_home_7,BranchTee_mvgd_1056_lvgd_97723_26,0.011,charging_point,,home,lv,0.011,POINT (10.794477243049505 50.09739114136336)
Charging_Point_LVGrid_97851_home_3,BranchTee_mvgd_1056_lvgd_97851_38,0.0147,charging_point,,home,lv,0.0147,POINT (10.753626164300272 50.07698765785446)
Charging_Point_LVGrid_504532_home_2,BranchTee_mvgd_1056_lvgd_504532_16,0.022,charging_point,,home,lv,0.022,POINT (10.753938282322014 50.09676720039985)
Charging_Point_LVGrid_99143_home_3,BranchTee_mvgd_1056_lvgd_99143_10,0.011,charging_point,,home,lv,0.011,POINT (10.731648908057263 50.10140817664777)
Charging_Point_LVGrid_97851_home_4,BranchTee_mvgd_1056_lvgd_97851_14,0.011,charging_point,,home,lv,0.011,POINT (10.753583627788768 50.07429043831303)
Charging_Point_LVGrid_97731_home_7,BranchTee_mvgd_1056_lvgd_97731_168,0.022,charging_point,,home,lv,0.022,POINT (10.804289303825058 50.099120693062915)
Charging_Point_LVGrid_99143_home_4,BranchTee_mvgd_1056_lvgd_99143_24,0.0367,charging_point,,home,lv,0.0367,POINT (10.733060237452747 50.10229827148781)
Charging_Point_LVGrid_97731_home_8,BranchTee_mvgd_1056_lvgd_97731_88,0.022,charging_point,,home,lv,0.022,POINT (10.804289303825058 50.099120693062915)
Charging_Point_LVGrid_97255_home_1,BranchTee_mvgd_1056_lvgd_97255_64,0.011,charging_point,,home,lv,0.011,POINT (10.674591316343463 50.11884379374949)
Charging_Point_LVGrid_98951_home_1,BranchTee_mvgd_1056_lvgd_98951_124,0.0257,charging_point,,home,lv,0.0257,POINT (10.758101894755638 50.094941273318554)
Charging_Point_LVGrid_97340_home_1,BranchTee_mvgd_1056_lvgd_97340_38,0.011,charging_point,,home,lv,0.011,POINT (10.762796589746088 50.12638051282451)
Charging_Point_LVGrid_97340_home_2,BranchTee_mvgd_1056_lvgd_97340_6,0.022,charging_point,,home,lv,0.022,POINT (10.764194841942437 50.12637115620669)
Charging_Point_LVGrid_99002_home_1,BranchTee_mvgd_1056_lvgd_99002_10,0.033,charging_point,,home,lv,0.033,POINT (10.665901971629665 50.09731525389838)
Charging_Point_LVGrid_97718_home_3,BranchTee_mvgd_1056_lvgd_97718_4,0.011,charging_point,,home,lv,0.011,POINT (10.784488675851893 50.084871968024885)
Charging_Point_LVGrid_99308_home_2,BranchTee_mvgd_1056_lvgd_99308_18,0.0147,charging_point,,home,lv,0.0147,POINT (10.780723737176489 50.110973561377385)
Charging_Point_LVGrid_99159_home_1,BranchTee_mvgd_1056_lvgd_99159_34,0.011,charging_point,,home,lv,0.011,POINT (10.691159496872483 50.10435820262947)
Charging_Point_LVGrid_97735_home_11,BranchTee_mvgd_1056_lvgd_97735_206,0.011,charging_point,,home,lv,0.011,POINT (10.80849686589962 50.09999010744221)
Charging_Point_LVGrid_98713_home_3,BranchTee_mvgd_1056_lvgd_98713_38,0.011,charging_point,,home,lv,0.011,POINT (10.689554125940738 50.08998144384445)
Charging_Point_LVGrid_97735_home_12,BranchTee_mvgd_1056_lvgd_97735_86,0.033,charging_point,,home,lv,0.033,POINT (10.811307084861905 50.10086931646764)
Charging_Point_LVGrid_97733_home_5,BranchTee_mvgd_1056_lvgd_97733_28,0.022,charging_point,,home,lv,0.022,POINT (10.811184895353907 50.093676847160964)
Charging_Point_LVGrid_97255_home_2,BranchTee_mvgd_1056_lvgd_97255_66,0.0037,charging_point,,home,lv,0.0037,POINT (10.674591316343463 50.11884379374949)
Charging_Point_LVGrid_98951_home_2,BranchTee_mvgd_1056_lvgd_98951_98,0.0257,charging_point,,home,lv,0.0257,POINT (10.753924088125078 50.095868132853866)
Charging_Point_LVGrid_97340_home_3,BranchTee_mvgd_1056_lvgd_97340_50,0.011,charging_point,,home,lv,0.011,POINT (10.762796589746088 50.12638051282451)
Charging_Point_LVGrid_97340_home_4,BranchTee_mvgd_1056_lvgd_97340_18,0.011,charging_point,,home,lv,0.011,POINT (10.764194841942437 50.12637115620669)
Charging_Point_LVGrid_99002_home_2,BranchTee_mvgd_1056_lvgd_99002_10,0.022,charging_point,,home,lv,0.022,POINT (10.664529578415436 50.09912156367719)
Charging_Point_LVGrid_97334_home_2,BranchTee_mvgd_1056_lvgd_97334_32,0.0147,charging_point,,home,lv,0.0147,POINT (10.741766834228244 50.12292255923947)
Charging_Point_LVGrid_97734_home_5,BranchTee_mvgd_1056_lvgd_97734_60,0.011,charging_point,,home,lv,0.011,POINT (10.80706900130734 50.09820188851082)
Charging_Point_LVGrid_99159_home_2,BranchTee_mvgd_1056_lvgd_99159_18,0.022,charging_point,,home,lv,0.022,POINT (10.691159496872483 50.10435820262947)
Charging_Point_LVGrid_97721_home_1,BranchTee_mvgd_1056_lvgd_97721_12,0.033,charging_point,,home,lv,0.033,POINT (10.790017335072214 50.08123711751342)
Charging_Point_LVGrid_97735_home_13,BranchTee_mvgd_1056_lvgd_97735_56,0.011,charging_point,,home,lv,0.011,POINT (10.80849686589962 50.09999010744221)
Charging_Point_LVGrid_98713_home_4,BranchTee_mvgd_1056_lvgd_98713_44,0.022,charging_point,,home,lv,0.022,POINT (10.689554125940738 50.08998144384445)
Charging_Point_LVGrid_98712_home_5,BranchTee_mvgd_1056_lvgd_98712_66,0.044,charging_point,,home,lv,0.044,POINT (10.688143974519335 50.089090806305485)
Charging_Point_LVGrid_97721_home_2,BranchTee_mvgd_1056_lvgd_97721_74,0.0147,charging_point,,home,lv,0.0147,POINT (10.790017335072214 50.08123711751342)
Charging_Point_LVGrid_98712_home_6,BranchTee_mvgd_1056_lvgd_98712_12,0.011,charging_point,,home,lv,0.011,POINT (10.68675972867426 50.089998308634705)
Charging_Point_LVGrid_97735_home_14,BranchTee_mvgd_1056_lvgd_97735_80,0.011,charging_point,,home,lv,0.011,POINT (10.80849686589962 50.09999010744221)
Charging_Point_LVGrid_97101_home_1,BranchTee_mvgd_1056_lvgd_97101_42,0.0147,charging_point,,home,lv,0.0147,POINT (10.705228627529795 50.110566150416616)
Charging_Point_LVGrid_439483_home_1,BranchTee_mvgd_1056_lvgd_439483_10,0.011,charging_point,,home,lv,0.011,POINT (10.714703618815054 50.08982657911632)
Charging_Point_LVGrid_97725_home_6,BranchTee_mvgd_1056_lvgd_97725_12,0.011,charging_point,,home,lv,0.011,POINT (10.798594259583602 50.09286655213346)
Charging_Point_LVGrid_97722_home_11,BranchTee_mvgd_1056_lvgd_97722_4,0.022,charging_point,,home,lv,0.022,POINT (10.79165263601173 50.09561245413896)
Charging_Point_LVGrid_99309_home_1,BranchTee_mvgd_1056_lvgd_99309_18,0.011,charging_point,,home,lv,0.011,POINT (10.787712721525361 50.11092551088771)
Charging_Point_LVGrid_99309_home_2,BranchTee_mvgd_1056_lvgd_99309_54,0.011,charging_point,,home,lv,0.011,POINT (10.786314925689435 50.110935155242416)
Charging_Point_LVGrid_99002_home_3,BranchTee_mvgd_1056_lvgd_99002_10,0.011,charging_point,,home,lv,0.011,POINT (10.664517066534302 50.098222484571465)
Charging_Point_LVGrid_97255_home_3,BranchTee_mvgd_1056_lvgd_97255_8,0.011,charging_point,,home,lv,0.011,POINT (10.674604026141559 50.11974286602127)
Charging_Point_LVGrid_99296_home_1,BranchTee_mvgd_1056_lvgd_99296_8,0.011,charging_point,,home,lv,0.011,POINT (10.821213260908298 50.107991746345164)
Charging_Point_LVGrid_97828_home_1,BranchTee_mvgd_1056_lvgd_97828_38,0.011,charging_point,,home,lv,0.011,POINT (10.770373333713362 50.075976544314614)
Charging_Point_LVGrid_97718_home_4,BranchTee_mvgd_1056_lvgd_97718_46,0.022,charging_point,,home,lv,0.022,POINT (10.784473912025247 50.08397290178694)
Charging_Point_LVGrid_97724_home_2,BranchTee_mvgd_1056_lvgd_97724_38,0.0147,charging_point,,home,lv,0.0147,POINT (10.793169447589218 50.1027952323848)
Charging_Point_LVGrid_97334_home_3,BranchTee_mvgd_1056_lvgd_97334_32,0.0037,charging_point,,home,lv,0.0037,POINT (10.745947240008945 50.12199614974455)
Charging_Point_LVGrid_97829_home_2,BranchTee_mvgd_1056_lvgd_97829_10,0.011,charging_point,,home,lv,0.011,POINT (10.771726550341725 50.07326988396645)
Charging_Point_LVGrid_97290_home_1,BranchTee_mvgd_1056_lvgd_97290_36,0.0037,charging_point,,home,lv,0.0037,POINT (10.716572970454386 50.1212852761271)
Charging_Point_LVGrid_97101_home_2,BranchTee_mvgd_1056_lvgd_97101_42,0.022,charging_point,,home,lv,0.022,POINT (10.705228627529795 50.110566150416616)
Charging_Point_LVGrid_439483_home_2,BranchTee_mvgd_1056_lvgd_439483_10,0.011,charging_point,,home,lv,0.011,POINT (10.714703618815054 50.08982657911632)
Charging_Point_LVGrid_97341_home_2,BranchTee_mvgd_1056_lvgd_97341_18,0.0147,charging_point,,home,lv,0.0147,POINT (10.767005798878898 50.12725144901871)
Charging_Point_LVGrid_97254_home_1,BranchTee_mvgd_1056_lvgd_97254_56,0.044,charging_point,,home,lv,0.044,POINT (10.67179522500663 50.118860293330286)
Charging_Point_LVGrid_97722_home_12,BranchTee_mvgd_1056_lvgd_97722_238,0.022,charging_point,,home,lv,0.022,POINT (10.79165263601173 50.09561245413896)
Charging_Point_LVGrid_99296_home_2,BranchTee_mvgd_1056_lvgd_99296_18,0.011,charging_point,,home,lv,0.011,POINT (10.821213260908298 50.107991746345164)
Charging_Point_LVGrid_99159_home_3,BranchTee_mvgd_1056_lvgd_99159_26,0.011,charging_point,,home,lv,0.011,POINT (10.691172512892079 50.10525727661165)
Charging_Point_LVGrid_97255_home_4,BranchTee_mvgd_1056_lvgd_97255_68,0.011,charging_point,,home,lv,0.011,POINT (10.673180588032661 50.117952979412735)
Charging_Point_LVGrid_97828_home_2,BranchTee_mvgd_1056_lvgd_97828_52,0.0037,charging_point,,home,lv,0.0037,POINT (10.770373333713362 50.075976544314614)
Charging_Point_LVGrid_97735_home_15,BranchTee_mvgd_1056_lvgd_97735_126,0.011,charging_point,,home,lv,0.011,POINT (10.811291808656128 50.09997025866043)
Charging_Point_LVGrid_97254_home_2,BranchTee_mvgd_1056_lvgd_97254_10,0.011,charging_point,,home,lv,0.011,POINT (10.668999131899234 50.11887672438259)
Charging_Point_LVGrid_99001_home_2,BranchTee_mvgd_1056_lvgd_99001_28,0.011,charging_point,,home,lv,0.011,POINT (10.660299871674429 50.09644867633317)
Charging_Point_LVGrid_99159_home_4,BranchTee_mvgd_1056_lvgd_99159_36,0.0367,charging_point,,home,lv,0.0367,POINT (10.693954733194758 50.10434122923711)
...
HP_Load_mvgd_1056_lvgd_97731_91,BranchTee_mvgd_1056_lvgd_97731_182,0.01,heat_pump,,,lv,,
HP_Load_mvgd_1056_lvgd_97722_108,BranchTee_mvgd_1056_lvgd_97722_216,0.001,heat_pump,,,lv,,
HP_Load_mvgd_1056_lvgd_97718_41,BranchTee_mvgd_1056_lvgd_97718_82,0.003,heat_pump,,,lv,,
HP_Load_mvgd_1056_lvgd_97731_48,BranchTee_mvgd_1056_lvgd_97731_96,0.004,heat_pump,,,lv,,
HP_Load_mvgd_1056_lvgd_97829_3,BranchTee_mvgd_1056_lvgd_97829_6,0.015,heat_pump,,,lv,,
HP_Load_mvgd_1056_lvgd_97723_49,BranchTee_mvgd_1056_lvgd_97723_98,0.011,heat_pump,,,lv,,
HP_Load_mvgd_1056_lvgd_97254_6,BranchTee_mvgd_1056_lvgd_97254_12,0.026,heat_pump,,,lv,,
HP_Load_mvgd_1056_lvgd_97720_15,BranchTee_mvgd_1056_lvgd_97720_30,0.016,heat_pump,,,lv,,
HP_Load_mvgd_1056_lvgd_103093_11,BranchTee_mvgd_1056_lvgd_103093_22,0.008,heat_pump,,,lv,,
HP_Load_mvgd_1056_lvgd_103068_23,BranchTee_mvgd_1056_lvgd_103068_46,0.001,heat_pump,,,lv,,
HP_Load_mvgd_1056_lvgd_97735_67,BranchTee_mvgd_1056_lvgd_97735_134,0.004,heat_pump,,,lv,,
HP_Load_mvgd_1056_lvgd_109035_48,BranchTee_mvgd_1056_lvgd_109035_96,0.008,heat_pump,,,lv,,
HP_Load_mvgd_1056_lvgd_97876_21,BranchTee_mvgd_1056_lvgd_97876_42,0.009,heat_pump,,,lv,,
HP_Load_mvgd_1056_lvgd_97722_97,BranchTee_mvgd_1056_lvgd_97722_194,0.001,heat_pump,,,lv,,
HP_Load_mvgd_1056_lvgd_97732_101,BranchTee_mvgd_1056_lvgd_97732_202,0.001,heat_pump,,,lv,,
HP_Load_mvgd_1056_lvgd_98951_59,BranchTee_mvgd_1056_lvgd_98951_118,0.009,heat_pump,,,lv,,
HP_Load_mvgd_1056_lvgd_97290_30,BranchTee_mvgd_1056_lvgd_97290_60,0.005,heat_pump,,,lv,,
HP_Load_mvgd_1056_lvgd_440438_35,BranchTee_mvgd_1056_lvgd_440438_70,0.021,heat_pump,,,lv,,
HP_Load_mvgd_1056_lvgd_97976_25,BranchTee_mvgd_1056_lvgd_97976_50,0.012,heat_pump,,,lv,,
HP_Load_mvgd_1056_lvgd_109684_4,BranchTee_mvgd_1056_lvgd_109684_8,0.007,heat_pump,,,lv,,
HP_Load_mvgd_1056_lvgd_102248_56,BranchTee_mvgd_1056_lvgd_102248_112,0.003,heat_pump,,,lv,,
HP_Load_mvgd_1056_lvgd_109037_40,BranchTee_mvgd_1056_lvgd_109037_80,0.006,heat_pump,,,lv,,
HP_Load_mvgd_1056_lvgd_97735_71,BranchTee_mvgd_1056_lvgd_97735_142,0.013,heat_pump,,,lv,,
HP_Load_mvgd_1056_lvgd_98278_9,BranchTee_mvgd_1056_lvgd_98278_18,0.032,heat_pump,,,lv,,
HP_Load_mvgd_1056_lvgd_97732_13,BranchTee_mvgd_1056_lvgd_97732_26,0.007,heat_pump,,,lv,,
HP_Load_mvgd_1056_lvgd_102177_73,BranchTee_mvgd_1056_lvgd_102177_146,0.007,heat_pump,,,lv,,
HP_Load_mvgd_1056_lvgd_97718_15,BranchTee_mvgd_1056_lvgd_97718_30,0.027,heat_pump,,,lv,,
HP_Load_mvgd_1056_lvgd_97721_29,BranchTee_mvgd_1056_lvgd_97721_58,0.016,heat_pump,,,lv,,
HP_Load_mvgd_1056_lvgd_102250_12,BranchTee_mvgd_1056_lvgd_102250_24,0.004,heat_pump,,,lv,,
HP_Load_mvgd_1056_lvgd_97976_56,BranchTee_mvgd_1056_lvgd_97976_112,0.012,heat_pump,,,lv,,
HP_Load_mvgd_1056_lvgd_102785_14,BranchTee_mvgd_1056_lvgd_102785_28,0.012,heat_pump,,,lv,,
HP_Load_mvgd_1056_lvgd_109036_41,BranchTee_mvgd_1056_lvgd_109036_82,0.006,heat_pump,,,lv,,
...